
     RDKit          3D

313  0  0  0  0  0  0  0  0  0999 V2000
   12.3260    6.0300   48.0200 O   0  0  0  0  0  0  0  0  0  0  0  0
   11.1230    5.3670   53.5150 O   0  0  0  0  0  0  0  0  0  0  0  0
   17.9300    2.4090   50.5450 C   0  0  0  0  0  0  0  0  0  0  0  0
   16.5730    2.6230   50.9740 C   0  0  0  0  0  0  0  0  0  0  0  0
   18.6910    2.5860   53.7890 N   0  0  0  0  0  0  0  0  0  0  0  0
   14.6700    5.4540   48.1780 C   0  0  0  0  0  0  0  0  0  0  0  0
   18.3220    5.3060   48.5100 O   0  0  0  0  0  0  0  0  0  0  0  0
   13.3240    5.5230   48.8930 C   0  0  0  0  0  0  0  0  0  0  0  0
   17.7850    4.5040   49.2540 C   0  0  0  0  0  0  0  0  0  0  0  0
   18.4370    3.3830   49.7050 N   0  0  0  0  0  0  0  0  0  0  0  0
   16.4900    4.6440   49.7090 N   0  0  0  0  0  0  0  0  0  0  0  0
   14.7410    6.3700   47.1030 O   0  0  0  0  0  0  0  0  0  0  0  0
   15.6840    5.8190   49.2630 C   0  0  0  0  0  0  0  0  0  0  0  0
   15.9180    3.7070   50.5460 C   0  0  0  0  0  0  0  0  0  0  0  0
   21.3070    4.3850   51.9270 N   0  0  0  0  0  0  0  0  0  0  0  0
   20.7430    3.2120   52.4230 C   0  0  0  0  0  0  0  0  0  0  0  0
   19.5520    3.4650   53.1450 C   0  0  0  0  0  0  0  0  0  0  0  0
   19.1080    4.7620   53.2670 C   0  0  0  0  0  0  0  0  0  0  0  0
   12.4750    4.7900   53.3430 P   0  0  0  0  0  0  0  0  0  0  0  0
   12.7020    3.3540   53.6080 O   0  0  0  0  0  0  0  0  0  0  0  0
   17.9440    4.6910   54.0000 N   0  0  0  0  0  0  0  0  0  0  0  0
   17.7590    3.3570   54.2820 C   0  0  0  0  0  0  0  0  0  0  0  0
   15.3630    3.1570   56.4390 O   0  0  0  0  0  0  0  0  0  0  0  0
   14.9160    4.4260   56.8820 C   0  0  0  0  0  0  0  0  0  0  0  0
   17.9760    4.3530   58.1390 O   0  0  0  0  0  0  0  0  0  0  0  0
   13.5800    6.5280   50.0070 C   0  0  0  0  0  0  0  0  0  0  0  0
   14.9720    6.3460   50.3650 O   0  0  0  0  0  0  0  0  0  0  0  0
   12.7090    6.3480   51.2370 C   0  0  0  0  0  0  0  0  0  0  0  0
   12.9880    5.0990   51.8600 O   0  0  0  0  0  0  0  0  0  0  0  0
   20.7870    5.6440   52.1070 C   0  0  0  0  0  0  0  0  0  0  0  0
   19.6730    5.8950   52.7800 N   0  0  0  0  0  0  0  0  0  0  0  0
   15.4490    7.3740   53.6210 O   0  0  0  0  0  0  0  0  0  0  0  0
   15.8120    6.0060   53.6300 C   0  0  0  0  0  0  0  0  0  0  0  0
   13.4830    5.6250   54.2630 O   0  0  0  0  0  0  0  0  0  0  0  0
   17.1030    5.8130   54.4210 C   0  0  0  0  0  0  0  0  0  0  0  0
   14.8260    5.1790   54.4460 C   0  0  0  0  0  0  0  0  0  0  0  0
   16.7250    5.5900   55.7660 O   0  0  0  0  0  0  0  0  0  0  0  0
   15.2820    5.4860   55.8620 C   0  0  0  0  0  0  0  0  0  0  0  0
   21.4730    6.6580   51.5580 N   0  0  0  0  0  0  0  0  0  0  0  0
   22.6760    5.7500   54.8710 N   0  0  0  0  0  0  0  0  0  0  0  0
   15.4040    7.1340   59.1860 O   0  0  0  0  0  0  0  0  0  0  0  0
   17.8140    7.2270   59.4870 C   0  0  0  0  0  0  0  0  0  0  0  0
   16.4430    7.3170   60.1380 C   0  0  0  0  0  0  0  0  0  0  0  0
    9.2810    7.9660   49.3230 C   0  0  0  0  0  0  0  0  0  0  0  0
   15.0080    9.1730   44.8570 O   0  0  0  0  0  0  0  0  0  0  0  0
   17.2660    8.3180   45.1840 C   0  0  0  0  0  0  0  0  0  0  0  0
   16.2570    9.4260   45.4720 C   0  0  0  0  0  0  0  0  0  0  0  0
   12.8290    9.9130   46.2090 N   0  0  0  0  0  0  0  0  0  0  0  0
   12.5800   11.2720   46.3650 C   0  0  0  0  0  0  0  0  0  0  0  0
   17.9570    8.0450   46.5200 C   0  0  0  0  0  0  0  0  0  0  0  0
   16.1130    9.3440   46.9850 C   0  0  0  0  0  0  0  0  0  0  0  0
   12.0870    9.3430   47.1190 C   0  0  0  0  0  0  0  0  0  0  0  0
   17.3900    8.9880   47.4580 O   0  0  0  0  0  0  0  0  0  0  0  0
   15.7010   10.5970   47.6100 N   0  0  0  0  0  0  0  0  0  0  0  0
   11.3620   10.2390   47.8700 N   0  0  0  0  0  0  0  0  0  0  0  0
   14.8840   10.7310   48.7060 C   0  0  0  0  0  0  0  0  0  0  0  0
   10.4460    9.9430   48.9680 C   0  0  0  0  0  0  0  0  0  0  0  0
   10.5890    8.5870   49.3500 O   0  0  0  0  0  0  0  0  0  0  0  0
   14.3120    9.7460   49.4180 N   0  0  0  0  0  0  0  0  0  0  0  0
   13.5860   10.2470   50.4130 C   0  0  0  0  0  0  0  0  0  0  0  0
   16.0350   11.8670   47.2300 C   0  0  0  0  0  0  0  0  0  0  0  0
   11.6810   11.4880   47.3850 C   0  0  0  0  0  0  0  0  0  0  0  0
   11.1900   12.6660   47.8410 N   0  0  0  0  0  0  0  0  0  0  0  0
   15.5030   12.7990   47.9850 N   0  0  0  0  0  0  0  0  0  0  0  0
   19.3740   12.7850   48.0480 C   0  0  0  0  0  0  0  0  0  0  0  0
   19.2130   11.4980   48.3900 N   0  0  0  0  0  0  0  0  0  0  0  0
   14.7710   12.0900   48.9230 C   0  0  0  0  0  0  0  0  0  0  0  0
   19.3580   13.7150   48.9920 N   0  0  0  0  0  0  0  0  0  0  0  0
   13.9710   12.4930   50.0100 C   0  0  0  0  0  0  0  0  0  0  0  0
   13.7720   13.7700   50.3480 N   0  0  0  0  0  0  0  0  0  0  0  0
   13.3880   11.5260   50.7460 N   0  0  0  0  0  0  0  0  0  0  0  0
   10.5200   14.4190   52.0560 O   0  0  0  0  0  0  0  0  0  0  0  0
   19.8170    9.5550   46.2390 O   0  0  0  0  0  0  0  0  0  0  0  0
   19.4650    8.2050   46.5110 C   0  0  0  0  0  0  0  0  0  0  0  0
   22.3560    8.0750   48.8160 O   0  0  0  0  0  0  0  0  0  0  0  0
   21.9220    9.4120   48.9600 C   0  0  0  0  0  0  0  0  0  0  0  0
   22.6740   10.0560   50.1210 C   0  0  0  0  0  0  0  0  0  0  0  0
   19.5500   13.0540   46.7100 N   0  0  0  0  0  0  0  0  0  0  0  0
   22.3400   10.2920   47.7840 C   0  0  0  0  0  0  0  0  0  0  0  0
   21.9550   12.4080   50.7440 C   0  0  0  0  0  0  0  0  0  0  0  0
   21.9270   11.0430   50.8970 N   0  0  0  0  0  0  0  0  0  0  0  0
   21.2050   13.0430   51.6000 N   0  0  0  0  0  0  0  0  0  0  0  0
   21.0870   10.8000   51.9620 C   0  0  0  0  0  0  0  0  0  0  0  0
   15.9300   15.4680   47.2910 N   0  0  0  0  0  0  0  0  0  0  0  0
   15.1260   15.9290   49.3580 O   0  0  0  0  0  0  0  0  0  0  0  0
   19.5260   14.9570   48.4790 C   0  0  0  0  0  0  0  0  0  0  0  0
   19.5370   16.1270   49.2030 N   0  0  0  0  0  0  0  0  0  0  0  0
   19.4370   16.2390   50.6540 C   0  0  0  0  0  0  0  0  0  0  0  0
    8.7420    8.5490   53.0840 C   0  0  0  0  0  0  0  0  0  0  0  0
   10.0810    8.2370   53.3130 N   0  0  0  0  0  0  0  0  0  0  0  0
   10.9410    8.9880   54.0810 C   0  0  0  0  0  0  0  0  0  0  0  0
    9.2910   10.4250   54.4890 C   0  0  0  0  0  0  0  0  0  0  0  0
   10.5910   10.1070   54.7030 N   0  0  0  0  0  0  0  0  0  0  0  0
   11.1390   15.4390   52.9320 P   0  0  0  0  0  0  0  0  0  0  0  0
   10.2400   13.4000   55.1310 C   0  0  0  0  0  0  0  0  0  0  0  0
   11.1980   13.8990   56.0450 O   0  0  0  0  0  0  0  0  0  0  0  0
   20.7720    9.5820   52.4670 N   0  0  0  0  0  0  0  0  0  0  0  0
   19.5230    8.5540   54.1100 N   0  0  0  0  0  0  0  0  0  0  0  0
   12.1990    8.5350   54.1910 N   0  0  0  0  0  0  0  0  0  0  0  0
   13.4030    8.0280   58.0050 O   0  0  0  0  0  0  0  0  0  0  0  0
   18.2620    8.4740   58.7490 C   0  0  0  0  0  0  0  0  0  0  0  0
   14.0350    7.9490   59.3420 P   0  0  0  0  0  0  0  0  0  0  0  0
   18.1980    9.6070   59.6060 O   0  0  0  0  0  0  0  0  0  0  0  0
   14.3210    9.1900   60.0920 O   0  0  0  0  0  0  0  0  0  0  0  0
   20.6500   12.0370   52.3790 C   0  0  0  0  0  0  0  0  0  0  0  0
   19.7550   12.1180   53.4720 C   0  0  0  0  0  0  0  0  0  0  0  0
   19.9350    9.6700   53.4910 C   0  0  0  0  0  0  0  0  0  0  0  0
   19.4430   10.8580   53.9770 N   0  0  0  0  0  0  0  0  0  0  0  0
   19.2570   13.1300   53.9840 O   0  0  0  0  0  0  0  0  0  0  0  0
   22.3780   11.4790   55.4370 C   0  0  0  0  0  0  0  0  0  0  0  0
   21.4430   11.6810   56.3730 N   0  0  0  0  0  0  0  0  0  0  0  0
   18.8690   11.4150   58.0030 O   0  0  0  0  0  0  0  0  0  0  0  0
   19.1500   10.8650   59.3480 P   0  0  0  0  0  0  0  0  0  0  0  0
   23.5750   10.0250   54.0960 C   0  0  0  0  0  0  0  0  0  0  0  0
   23.1080   12.5240   54.8350 C   0  0  0  0  0  0  0  0  0  0  0  0
   22.6430   10.2190   55.0370 N   0  0  0  0  0  0  0  0  0  0  0  0
   12.5180   15.2510   53.4340 O   0  0  0  0  0  0  0  0  0  0  0  0
   20.8830   15.6270   52.5100 O   0  0  0  0  0  0  0  0  0  0  0  0
   16.5960    7.1530   44.7430 O   0  0  0  0  0  0  0  0  0  0  0  0
   21.0660    3.9010   47.7630 C   0  0  0  0  0  0  0  0  0  0  0  0
   24.4070    6.5990   52.5190 O   0  0  0  0  0  0  0  0  0  0  0  0
   13.0960   12.3880   45.6610 C   0  0  0  0  0  0  0  0  0  0  0  0
   21.1720    9.9070   45.4620 P   0  0  0  0  0  0  0  0  0  0  0  0
   13.9070   12.3980   44.7260 O   0  0  0  0  0  0  0  0  0  0  0  0
   21.1690   11.3640   45.2030 O   0  0  0  0  0  0  0  0  0  0  0  0
   19.7270   14.3260   46.1700 C   0  0  0  0  0  0  0  0  0  0  0  0
   22.3020    9.5890   46.5490 O   0  0  0  0  0  0  0  0  0  0  0  0
   23.4240   13.0060   47.9580 O   0  0  0  0  0  0  0  0  0  0  0  0
   23.7820   10.6260   48.1300 C   0  0  0  0  0  0  0  0  0  0  0  0
   23.8160   10.6920   49.5780 O   0  0  0  0  0  0  0  0  0  0  0  0
   15.4970   16.3270   48.2680 C   0  0  0  0  0  0  0  0  0  0  0  0
   19.7060   15.3290   47.1670 C   0  0  0  0  0  0  0  0  0  0  0  0
   20.8370   16.3000   51.2650 C   0  0  0  0  0  0  0  0  0  0  0  0
   18.7800   17.4400   51.0110 O   0  0  0  0  0  0  0  0  0  0  0  0
   24.3240   10.9260   53.4610 N   0  0  0  0  0  0  0  0  0  0  0  0
   24.0390   12.1700   53.8770 C   0  0  0  0  0  0  0  0  0  0  0  0
   23.0800   13.8970   55.0090 N   0  0  0  0  0  0  0  0  0  0  0  0
   17.1000    2.5800   46.2250 C   0  0  0  0  0  0  0  0  0  0  0  0
   16.3970    2.0530   47.2000 N   0  0  0  0  0  0  0  0  0  0  0  0
   18.6350    1.4600   50.8670 O   0  0  0  0  0  0  0  0  0  0  0  0
   20.7670    2.8600   48.5490 N   0  0  0  0  0  0  0  0  0  0  0  0
   21.2910    2.1230   52.2020 O   0  0  0  0  0  0  0  0  0  0  0  0
   17.1960    6.3010   43.5330 P   0  0  0  0  0  0  0  0  0  0  0  0
   18.5230    5.7060   44.1980 O   0  0  0  0  0  0  0  0  0  0  0  0
   19.5450    3.4900   44.9110 O   0  0  0  0  0  0  0  0  0  0  0  0
   22.0530    4.0260   46.8780 N   0  0  0  0  0  0  0  0  0  0  0  0
   24.0230    5.1510   49.3410 C   0  0  0  0  0  0  0  0  0  0  0  0
   23.5710    4.1720   50.1340 N   0  0  0  0  0  0  0  0  0  0  0  0
   22.4990    4.4740   55.2460 C   0  0  0  0  0  0  0  0  0  0  0  0
   21.6450    4.1850   56.2190 N   0  0  0  0  0  0  0  0  0  0  0  0
   21.3620    8.9580   44.3420 O   0  0  0  0  0  0  0  0  0  0  0  0
   24.2760   11.9390   47.5560 C   0  0  0  0  0  0  0  0  0  0  0  0
   12.5820   13.5910   46.1440 N   0  0  0  0  0  0  0  0  0  0  0  0
   19.8700   14.4640   44.9470 O   0  0  0  0  0  0  0  0  0  0  0  0
   11.6810   13.7020   47.1730 C   0  0  0  0  0  0  0  0  0  0  0  0
   16.3720   15.8080   46.0250 C   0  0  0  0  0  0  0  0  0  0  0  0
   15.5080   17.6620   47.9160 N   0  0  0  0  0  0  0  0  0  0  0  0
   16.7310   14.9260   45.2550 O   0  0  0  0  0  0  0  0  0  0  0  0
   19.8410   16.7080   47.0630 N   0  0  0  0  0  0  0  0  0  0  0  0
   23.9720   14.5070   47.9580 P   0  0  0  0  0  0  0  0  0  0  0  0
   22.9290   15.3810   48.5420 O   0  0  0  0  0  0  0  0  0  0  0  0
   19.7450   17.1360   48.2910 C   0  0  0  0  0  0  0  0  0  0  0  0
   21.0590   17.8040   51.3840 C   0  0  0  0  0  0  0  0  0  0  0  0
   19.6730   18.2470   51.8240 C   0  0  0  0  0  0  0  0  0  0  0  0
   24.6000   13.3540   53.4450 N   0  0  0  0  0  0  0  0  0  0  0  0
   23.9850   14.3370   54.1680 C   0  0  0  0  0  0  0  0  0  0  0  0
   16.3600   17.2170   45.7330 C   0  0  0  0  0  0  0  0  0  0  0  0
   15.9390   18.0740   46.6710 C   0  0  0  0  0  0  0  0  0  0  0  0
   11.2960   14.9450   47.4970 N   0  0  0  0  0  0  0  0  0  0  0  0
   15.0590   18.6680   48.9220 C   0  0  0  0  0  0  0  0  0  0  0  0
   12.2560   17.4750   51.7210 C   0  0  0  0  0  0  0  0  0  0  0  0
   11.0710   16.8490   52.1880 O   0  0  0  0  0  0  0  0  0  0  0  0
   16.1870   19.1160   49.8470 C   0  0  0  0  0  0  0  0  0  0  0  0
   15.6670   19.3530   51.1400 O   0  0  0  0  0  0  0  0  0  0  0  0
   22.0360   18.1280   52.3720 O   0  0  0  0  0  0  0  0  0  0  0  0
   12.1000   18.9790   51.8250 C   0  0  0  0  0  0  0  0  0  0  0  0
   14.5700   19.8280   48.2720 O   0  0  0  0  0  0  0  0  0  0  0  0
   16.6370   20.3920   49.1420 C   0  0  0  0  0  0  0  0  0  0  0  0
   24.9500   14.4700   50.3900 C   0  0  0  0  0  0  0  0  0  0  0  0
   19.6030   20.1280   50.2960 O   0  0  0  0  0  0  0  0  0  0  0  0
   24.1380   17.0140   51.5610 O   0  0  0  0  0  0  0  0  0  0  0  0
   19.3670   19.7230   51.6390 C   0  0  0  0  0  0  0  0  0  0  0  0
   10.1680   15.6210   54.1920 O   0  0  0  0  0  0  0  0  0  0  0  0
   13.4020   19.6980   53.7180 O   0  0  0  0  0  0  0  0  0  0  0  0
   15.2250   19.6330   55.4010 O   0  0  0  0  0  0  0  0  0  0  0  0
    8.6290   11.5210   54.9990 N   0  0  0  0  0  0  0  0  0  0  0  0
    9.1930   12.5620   55.8550 C   0  0  0  0  0  0  0  0  0  0  0  0
    9.3700   14.5040   54.5510 C   0  0  0  0  0  0  0  0  0  0  0  0
   13.0140   18.3950   55.8210 O   0  0  0  0  0  0  0  0  0  0  0  0
    8.3580    9.7430   53.7410 C   0  0  0  0  0  0  0  0  0  0  0  0
   20.6140   10.2220   59.3170 O   0  0  0  0  0  0  0  0  0  0  0  0
    8.4610   14.7860   55.7370 C   0  0  0  0  0  0  0  0  0  0  0  0
    8.1690   13.4600   56.2520 O   0  0  0  0  0  0  0  0  0  0  0  0
   12.0730   19.5100   53.2490 C   0  0  0  0  0  0  0  0  0  0  0  0
   13.7520   19.5560   55.2750 P   0  0  0  0  0  0  0  0  0  0  0  0
    7.1310   10.3940   53.7710 N   0  0  0  0  0  0  0  0  0  0  0  0
    7.3420   11.4390   54.5230 C   0  0  0  0  0  0  0  0  0  0  0  0
   19.0530   11.7390   60.5370 O   0  0  0  0  0  0  0  0  0  0  0  0
   13.1590    7.0110   60.2960 O   0  0  0  0  0  0  0  0  0  0  0  0
    8.9760   10.1480   48.6160 C   0  0  0  0  0  0  0  0  0  0  0  0
    8.2710   10.5900   49.7590 O   0  0  0  0  0  0  0  0  0  0  0  0
    6.9130   13.5020   50.9330 O   0  0  0  0  0  0  0  0  0  0  0  0
    8.0460    7.8090   52.3760 O   0  0  0  0  0  0  0  0  0  0  0  0
    6.6240   15.1240   54.1680 O   0  0  0  0  0  0  0  0  0  0  0  0
    7.1680   15.5210   55.4250 C   0  0  0  0  0  0  0  0  0  0  0  0
   12.9590    5.6360   59.9850 C   0  0  0  0  0  0  0  0  0  0  0  0
   16.5420    6.1510   61.1120 C   0  0  0  0  0  0  0  0  0  0  0  0
   18.6960    6.9660   60.6100 O   0  0  0  0  0  0  0  0  0  0  0  0
   18.3120    8.5580   62.7600 C   0  0  0  0  0  0  0  0  0  0  0  0
   21.1120    9.5220   60.4500 C   0  0  0  0  0  0  0  0  0  0  0  0
   12.6480    4.8480   61.2450 C   0  0  0  0  0  0  0  0  0  0  0  0
   16.4410    4.9010   60.4590 O   0  0  0  0  0  0  0  0  0  0  0  0
   17.9540    6.3590   61.6540 C   0  0  0  0  0  0  0  0  0  0  0  0
   17.9940    7.2340   62.8700 N   0  0  0  0  0  0  0  0  0  0  0  0
   14.0330    7.3450   63.4630 C   0  0  0  0  0  0  0  0  0  0  0  0
   18.3500    9.3530   63.8360 C   0  0  0  0  0  0  0  0  0  0  0  0
   14.3910    8.4910   64.0530 C   0  0  0  0  0  0  0  0  0  0  0  0
   14.3100    8.5540   65.4760 C   0  0  0  0  0  0  0  0  0  0  0  0
   11.3980    5.2770   62.0040 C   0  0  0  0  0  0  0  0  0  0  0  0
   13.7300    5.0240   62.1940 O   0  0  0  0  0  0  0  0  0  0  0  0
    8.8400    6.6720   61.2900 O   0  0  0  0  0  0  0  0  0  0  0  0
   13.6040    6.2760   64.1990 N   0  0  0  0  0  0  0  0  0  0  0  0
    8.8600   11.3940   64.9130 O   0  0  0  0  0  0  0  0  0  0  0  0
   10.7070    8.0810   65.2450 C   0  0  0  0  0  0  0  0  0  0  0  0
   11.3610   10.1570   66.1870 O   0  0  0  0  0  0  0  0  0  0  0  0
   10.7330   13.4790   66.0890 O   0  0  0  0  0  0  0  0  0  0  0  0
   14.6550    9.6710   66.1240 N   0  0  0  0  0  0  0  0  0  0  0  0
   14.6850   15.7740   65.7180 N   0  0  0  0  0  0  0  0  0  0  0  0
   12.6850   14.6560   65.9840 N   0  0  0  0  0  0  0  0  0  0  0  0
    7.3000   16.7390   63.1350 O   0  0  0  0  0  0  0  0  0  0  0  0
   11.0000   17.1910   65.1030 N   0  0  0  0  0  0  0  0  0  0  0  0
   13.1060   20.8680   55.9140 O   0  0  0  0  0  0  0  0  0  0  0  0
    6.0710   12.0650   63.1510 C   0  0  0  0  0  0  0  0  0  0  0  0
    5.1800   14.8950   61.4860 N   0  0  0  0  0  0  0  0  0  0  0  0
    6.8090   17.5920   63.8910 C   0  0  0  0  0  0  0  0  0  0  0  0
    6.1630   12.8840   64.2060 N   0  0  0  0  0  0  0  0  0  0  0  0
    9.0660   16.3570   66.0020 N   0  0  0  0  0  0  0  0  0  0  0  0
   10.0220   17.2880   66.0110 C   0  0  0  0  0  0  0  0  0  0  0  0
   11.5170   14.2660   66.6370 C   0  0  0  0  0  0  0  0  0  0  0  0
    9.7320   21.1670   56.3840 C   0  0  0  0  0  0  0  0  0  0  0  0
    8.8490   20.1740   56.5500 C   0  0  0  0  0  0  0  0  0  0  0  0
    7.6380   20.4750   57.2430 C   0  0  0  0  0  0  0  0  0  0  0  0
    6.7140   19.5290   57.4440 N   0  0  0  0  0  0  0  0  0  0  0  0
    6.6750   18.6310   60.4880 N   0  0  0  0  0  0  0  0  0  0  0  0
    6.7240   19.8480   61.0420 C   0  0  0  0  0  0  0  0  0  0  0  0
    9.0360   20.6170   60.2490 N   0  0  0  0  0  0  0  0  0  0  0  0
    9.6330   21.7600   60.4940 C   0  0  0  0  0  0  0  0  0  0  0  0
    7.8210   20.7260   60.9070 C   0  0  0  0  0  0  0  0  0  0  0  0
    8.5700   19.4270   63.9790 N   0  0  0  0  0  0  0  0  0  0  0  0
   14.0670   21.4330   59.6250 O   0  0  0  0  0  0  0  0  0  0  0  0
   13.6220   15.5200   66.4970 C   0  0  0  0  0  0  0  0  0  0  0  0
    3.7950   17.6260   60.5440 O   0  0  0  0  0  0  0  0  0  0  0  0
    4.0530   14.6010   62.1420 C   0  0  0  0  0  0  0  0  0  0  0  0
    5.5500   17.3750   64.4460 N   0  0  0  0  0  0  0  0  0  0  0  0
    7.3840   21.6960   57.7100 N   0  0  0  0  0  0  0  0  0  0  0  0
    9.4830   22.4210   56.8610 N   0  0  0  0  0  0  0  0  0  0  0  0
    5.6690   20.2740   61.7700 N   0  0  0  0  0  0  0  0  0  0  0  0
    7.3560   18.8330   64.3010 C   0  0  0  0  0  0  0  0  0  0  0  0
    7.7190   21.9500   61.5390 C   0  0  0  0  0  0  0  0  0  0  0  0
    8.5590   20.5550   64.6330 C   0  0  0  0  0  0  0  0  0  0  0  0
    8.8920   22.6130   61.2650 N   0  0  0  0  0  0  0  0  0  0  0  0
   13.5250   16.0930   67.6910 N   0  0  0  0  0  0  0  0  0  0  0  0
   13.6500   22.1460   55.6330 C   0  0  0  0  0  0  0  0  0  0  0  0
   12.5370   23.0680   57.7470 C   0  0  0  0  0  0  0  0  0  0  0  0
   14.1500   22.8970   59.8170 P   0  0  0  0  0  0  0  0  0  0  0  0
   13.0480   23.2870   60.9100 O   0  0  0  0  0  0  0  0  0  0  0  0
    5.1270   11.1700   62.8680 N   0  0  0  0  0  0  0  0  0  0  0  0
    8.1950   11.2000   65.9380 C   0  0  0  0  0  0  0  0  0  0  0  0
    8.0500   16.4140   66.8990 C   0  0  0  0  0  0  0  0  0  0  0  0
    7.1470   15.5690   66.9140 O   0  0  0  0  0  0  0  0  0  0  0  0
   10.7880    9.0770   66.2820 C   0  0  0  0  0  0  0  0  0  0  0  0
    8.3750   12.0170   67.0520 N   0  0  0  0  0  0  0  0  0  0  0  0
   11.3990   14.8710   67.9120 C   0  0  0  0  0  0  0  0  0  0  0  0
   10.3990   14.7540   68.8700 N   0  0  0  0  0  0  0  0  0  0  0  0
   10.0170   18.3570   66.9550 C   0  0  0  0  0  0  0  0  0  0  0  0
   12.5630   11.6960   68.5240 N   0  0  0  0  0  0  0  0  0  0  0  0
   12.3920   15.7250   68.3400 C   0  0  0  0  0  0  0  0  0  0  0  0
    7.2130   10.2070   66.1620 C   0  0  0  0  0  0  0  0  0  0  0  0
    8.0260   17.4590   67.8300 N   0  0  0  0  0  0  0  0  0  0  0  0
   10.7990   15.5240   69.8430 C   0  0  0  0  0  0  0  0  0  0  0  0
    9.0130   18.4030   67.8360 C   0  0  0  0  0  0  0  0  0  0  0  0
   11.8220   11.5750   69.6310 C   0  0  0  0  0  0  0  0  0  0  0  0
   12.7630   22.0600   64.7860 O   0  0  0  0  0  0  0  0  0  0  0  0
   11.9980   16.1470   69.5910 N   0  0  0  0  0  0  0  0  0  0  0  0
    6.6310   19.6360   65.1570 C   0  0  0  0  0  0  0  0  0  0  0  0
    7.4150   20.7510   65.3700 N   0  0  0  0  0  0  0  0  0  0  0  0
   11.1810   23.8590   63.0780 C   0  0  0  0  0  0  0  0  0  0  0  0
   15.4440   23.5170   60.1770 O   0  0  0  0  0  0  0  0  0  0  0  0
   12.2150   23.2810   65.4150 P   0  0  0  0  0  0  0  0  0  0  0  0
   12.5430   19.2350   69.4320 O   0  0  0  0  0  0  0  0  0  0  0  0
    4.1840   11.1500   63.8250 C   0  0  0  0  0  0  0  0  0  0  0  0
    4.1430   11.9290   64.9660 C   0  0  0  0  0  0  0  0  0  0  0  0
    5.2010   12.8410   65.1520 C   0  0  0  0  0  0  0  0  0  0  0  0
    3.7910   15.2860   63.2570 N   0  0  0  0  0  0  0  0  0  0  0  0
    6.7460    9.2070   65.3190 N   0  0  0  0  0  0  0  0  0  0  0  0
    6.5800   10.1550   67.3820 C   0  0  0  0  0  0  0  0  0  0  0  0
    6.7670   10.9560   68.4590 N   0  0  0  0  0  0  0  0  0  0  0  0
    4.9070   18.2360   65.3000 C   0  0  0  0  0  0  0  0  0  0  0  0
    5.2940   13.6560   66.2080 N   0  0  0  0  0  0  0  0  0  0  0  0
    7.6900   11.8850   68.2350 C   0  0  0  0  0  0  0  0  0  0  0  0
    6.9210   17.5250   68.8350 C   0  0  0  0  0  0  0  0  0  0  0  0
    7.9970   12.7650   69.1980 N   0  0  0  0  0  0  0  0  0  0  0  0
   10.1510    8.7410   67.4620 N   0  0  0  0  0  0  0  0  0  0  0  0
   10.8280   10.6640   69.6560 N   0  0  0  0  0  0  0  0  0  0  0  0
    5.4080   19.4030   65.6960 N   0  0  0  0  0  0  0  0  0  0  0  0
   12.0260   12.3480   70.7880 C   0  0  0  0  0  0  0  0  0  0  0  0
   12.7110   17.0660   70.4710 C   0  0  0  0  0  0  0  0  0  0  0  0
   13.8940    7.5160   66.2030 N   0  0  0  0  0  0  0  0  0  0  0  0
   18.0390    8.7690   65.1000 C   0  0  0  0  0  0  0  0  0  0  0  0
   18.0580    9.5100   66.2130 N   0  0  0  0  0  0  0  0  0  0  0  0
   14.5470    9.5210   69.2450 O   0  0  0  0  0  0  0  0  0  0  0  0
   12.9350   13.3460   71.0930 N   0  0  0  0  0  0  0  0  0  0  0  0
   20.6160   12.4610   64.9990 O   0  0  0  0  0  0  0  0  0  0  0  0
M  END
$$$$
